
     RDKit          3D

  3  2  0  0  0  0  0  0  0  0999 V2000
   -3.8671    0.2946   -0.0000 C   0  0  0  0  0  0  0  0  0  0  0  0
   -3.1595    1.2591   -0.0000 O   0  0  0  0  0  0  0  0  0  0  0  0
   -4.5744   -0.6703   -0.0000 O   0  0  0  0  0  0  0  0  0  0  0  0
  1  2  2  0
  1  3  2  0
M  END

